8
-32.4 11.753989693764249 5.325733319270515 6.7942123514756485 90.0 79.74117275500237 90.0  Cartesian
Pu 10.605072 0.000000 3.301309
Pu 4.728077 2.662867 3.301309
Pu 5.940063 0.000000 4.075283
Pu 11.817058 2.662867 4.075283
Pu 7.879398 0.000000 2.497633
Pu 2.002403 2.662867 2.497633
Pu 11.389126 0.000000 0.927439
Pu 5.512132 2.662867 0.927439
